Version 4
SHEET 1 880 680
WIRE -128 32 -592 32
WIRE 16 32 -128 32
WIRE 112 32 16 32
WIRE 224 32 112 32
WIRE -592 64 -592 32
WIRE 224 64 224 32
WIRE 112 144 112 32
WIRE -592 160 -592 144
WIRE -128 160 -128 32
WIRE 224 176 224 128
WIRE 224 272 224 256
WIRE 16 288 16 32
WIRE -16 304 -224 304
WIRE 112 320 112 224
WIRE 112 320 48 320
WIRE 160 320 112 320
WIRE -624 336 -688 336
WIRE -496 336 -544 336
WIRE -352 336 -416 336
WIRE -224 336 -224 304
WIRE -224 336 -272 336
WIRE -128 336 -128 224
WIRE -16 336 -128 336
WIRE -224 368 -224 336
WIRE -128 368 -128 336
WIRE -688 384 -688 336
WIRE 16 416 16 352
WIRE 224 416 224 368
WIRE -688 480 -688 464
WIRE -224 480 -224 448
WIRE -128 480 -128 448
FLAG -592 160 0
FLAG -688 480 0
FLAG 16 416 0
FLAG -224 480 0
FLAG -128 480 0
FLAG 224 416 0
SYMBOL voltage -592 48 R0
WINDOW 123 0 0 Left 2
WINDOW 39 0 0 Left 2
SYMATTR InstName V1
SYMATTR Value 5
SYMBOL voltage -688 368 R0
WINDOW 123 0 0 Left 2
WINDOW 39 0 0 Left 2
SYMATTR InstName V2
SYMATTR Value 48
SYMBOL pnp 160 368 M180
SYMATTR InstName Q1
SYMATTR Value BC857A
SYMBOL Opamps\\LT1077 16 256 R0
SYMATTR InstName U1
SYMBOL res -400 320 R90
WINDOW 0 0 56 VBottom 2
WINDOW 3 32 56 VTop 2
SYMATTR InstName R1
SYMATTR Value 12k
SYMBOL res -256 320 R90
WINDOW 0 0 56 VBottom 2
WINDOW 3 32 56 VTop 2
SYMATTR InstName R2
SYMATTR Value 12k
SYMBOL res -208 464 R180
WINDOW 0 36 76 Left 2
WINDOW 3 36 40 Left 2
SYMATTR InstName R3
SYMATTR Value 2.7k
SYMBOL res -144 352 R0
SYMATTR InstName R4
SYMATTR Value 330
SYMBOL res 208 160 R0
SYMATTR InstName R5
SYMATTR Value 330
SYMBOL res 96 128 R0
SYMATTR InstName R6
SYMATTR Value 2.7k
SYMBOL res -528 320 R90
WINDOW 0 0 56 VBottom 2
WINDOW 3 32 56 VTop 2
SYMATTR InstName R7
SYMATTR Value 12k
SYMBOL diode -144 160 R0
SYMATTR InstName D1
SYMATTR Value LED2
SYMBOL diode 208 64 R0
SYMATTR InstName D2
SYMATTR Value LED2
TEXT -624 504 Left 2 !.dc v2 0 60 0.1
TEXT -600 536 Left 2 !.inc LED.mod
